* PSpice Model Editor - Version 17.2.0

*$
.subckt 2N1595          anode gate cathode
* "Typical" parameters
X1 anode gate cathode Scr params:
+ Vdrm=50v   Vrrm=1200v     Ih=5ma       Vtm=1.1v     Itm=1
+ dVdt=1e9   Igt=2ma      Vgt=.7v      Ton=0.8u     Toff=10u
+ Idrm=10u
* 90-5-18    Motorola     DL137, Rev 2, 3/89
.ends
*$
